powerfactory/powerfactory-converter/src/test/resources/Transformer-VlVh-GB.xiidm
<?xml version="1.0" encoding="UTF-8"?>
<iidm:network xmlns:iidm="http://www.powsybl.org/schema/iidm/1_17" id="Transformer-VlVh-GB" caseDate="2021-01-01T10:00:00.000+02:00" forecastDistance="0" sourceFormat="POWER-FACTORY" minimumValidationLevel="STEADY_STATE_HYPOTHESIS">
    <iidm:substation id="S8">
        <iidm:voltageLevel id="VL8" nominalV="220.0" topologyKind="NODE_BREAKER">
            <iidm:nodeBreakerTopology>
                <iidm:busbarSection id="VL8_1 Bus 1-Slack" node="0"/>
                <iidm:switch id="VL8_Switch" kind="BREAKER" open="false" node1="0" node2="1"/>
                <iidm:switch id="VL8_Switch#0" kind="BREAKER" open="false" node1="0" node2="2"/>
                <iidm:bus v="233.19998168945312" angle="0.0" nodes="0,1,2"/>
            </iidm:nodeBreakerTopology>
            <iidm:generator id="sym_1_1" energySource="OTHER" minP="0.0" maxP="51.650001525878906" targetP="51.650001525878906" localTargetV="233.19998741149902" localTargetQ="0.0" node="2">
                <iidm:minMaxReactiveLimits minQ="0.0" maxQ="0.0"/>
                <iidm:voltageRegulation mode="VOLTAGE" regulating="true"/>
            </iidm:generator>
        </iidm:voltageLevel>
    </iidm:substation>
    <iidm:substation id="S9">
        <iidm:voltageLevel id="VL9" nominalV="220.0" topologyKind="NODE_BREAKER">
            <iidm:nodeBreakerTopology>
                <iidm:busbarSection id="VL9_2 Bus 2" node="0"/>
                <iidm:switch id="VL9_Switch" kind="BREAKER" open="false" node1="0" node2="1"/>
                <iidm:switch id="VL9_Switch#0" kind="BREAKER" open="false" node1="0" node2="2"/>
                <iidm:bus v="228.9239044189453" angle="-1.4022903442382812" nodes="0,1,2"/>
            </iidm:nodeBreakerTopology>
        </iidm:voltageLevel>
        <iidm:voltageLevel id="VL10" nominalV="110.0" topologyKind="NODE_BREAKER">
            <iidm:nodeBreakerTopology>
                <iidm:busbarSection id="VL10_3 Bus 2-Load" node="0"/>
                <iidm:switch id="VL10_Switch" kind="BREAKER" open="false" node1="0" node2="1"/>
                <iidm:switch id="VL10_Switch#0" kind="BREAKER" open="false" node1="0" node2="2"/>
                <iidm:bus v="112.5989761352539" angle="-2.9006764888763428" nodes="0,1,2"/>
            </iidm:nodeBreakerTopology>
            <iidm:load id="lod_3_1" loadType="UNDEFINED" p0="50.0" q0="25.0" node="1"/>
        </iidm:voltageLevel>
        <iidm:twoWindingsTransformer id="trf_2_3_1" r="0.14641" x="6.744530087748594" g="8.59504132231405E-5" b="-6.826453953309849E-4" ratedU1="220.0" ratedU2="110.0" ratedS="200.0" node1="2" voltageLevelId1="VL9" node2="2" voltageLevelId2="VL10">
            <iidm:ratioTapChanger tapPosition="9" loadTapChangingCapabilities="false">
                <iidm:step r="-29.13180869345685" x="-29.13180869345685" g="41.10703004602738" b="41.10703004602738" rho="0.8418324732780457"/>
                <iidm:step r="-26.14202221156008" x="-26.14202221156008" g="35.39498777835719" b="35.39498777835719" rho="0.8594066429138183"/>
                <iidm:step r="-23.09046544198591" x="-23.09046544198591" g="30.022890626868115" b="30.022890626868115" rho="0.876980812549591"/>
                <iidm:step r="-19.97713838473435" x="-19.97713838473435" g="24.964288931306335" b="24.964288931306335" rho="0.8945549821853638"/>
                <iidm:step r="-16.802041039805403" x="-16.802041039805403" g="20.19525628969361" b="20.19525628969361" rho="0.9121291518211365"/>
                <iidm:step r="-13.565173407199104" x="-13.565173407199104" g="15.69410611662978" b="15.69410611662978" rho="0.9297033214569093"/>
                <iidm:step r="-10.266535486915396" x="-10.266535486915396" g="11.441144663949053" b="11.441144663949053" rho="0.9472774910926818"/>
                <iidm:step r="-6.90612727895431" x="-6.90612727895431" g="7.418455239958077" b="7.418455239958077" rho="0.9648516607284546"/>
                <iidm:step r="-3.48394878331586" x="-3.48394878331586" g="3.6097092031813327" b="3.6097092031813327" rho="0.9824258303642271"/>
                <iidm:step rho="1.0"/>
                <iidm:step r="3.5457190709932362" x="3.5457190709932362" g="-3.424302909676269" b="-3.424302909676269" rho="1.0175741696357727"/>
                <iidm:step r="7.153208429663871" x="7.153208429663871" g="-6.675682916540282" b="-6.675682916540282" rho="1.0351483392715455"/>
                <iidm:step r="10.822468076011859" x="10.822468076011859" g="-9.765590194750807" b="-9.765590194750807" rho="1.0527225089073182"/>
                <iidm:step r="14.553498010037202" x="14.553498010037202" g="-12.704542648502992" b="-12.704542648502992" rho="1.0702966785430907"/>
            </iidm:ratioTapChanger>
        </iidm:twoWindingsTransformer>
    </iidm:substation>
    <iidm:line id="lne_1_2_1" r="9.379916191101074" x="28.638273239135742" b1="3.5752053070068355E-4" b2="3.5752053070068355E-4" node1="1" voltageLevelId1="VL8" node2="1" voltageLevelId2="VL9"/>
</iidm:network>
